<?xml version="1.0" encoding="UTF-8"?>

<!-- generated on 2025-01-23 16:54:00 by Eclipse SUMO netedit Version 1.21.0
-->

<routes xmlns:xsi="http://www.w3.org/2001/XMLSchema-instance" xsi:noNamespaceSchemaLocation="http://sumo.dlr.de/xsd/routes_file.xsd">
    <!-- VTypes -->
    <vType id="ambulance" vClass="emergency" color="red" accel="1.0" decel="4.0" emergencyDecel="12.0"/>
    <vType id="bike" vClass="motorcycle" color="grey" accel="1.0" decel="4.0" emergencyDecel="12.0"/>
    <vType id="bus" vClass="bus" color="green" accel="1.0" decel="4.0" emergencyDecel="12.0"/>
    <vType id="car" color="cyan" accel="1.0" decel="4.0" emergencyDecel="12.0"/>
    <vType id="moped" vClass="moped" accel="1.0" decel="4.0" emergencyDecel="12.0"/>
    <vType id="police" vClass="authority" color="blue" accel="1.0" decel="4.0" emergencyDecel="12.0"/>
    <vType id="truck" vClass="truck" color="orange" accel="1.0" decel="4.0" emergencyDecel="12.0"/>
    <vTypeDistribution id="mixed" vTypes="ambulance bike bus car moped police truck" probabilities="0.01 0.50 0.15 0.50 0.50 0.10 0.15"/>
    <!-- Routes -->
    <route id="route_en" edges="e_t t_n"/>
    <route id="route_es" edges="e_t t_s"/>
    <route id="route_ew" edges="e_t t_w"/>
    <route id="route_ne" edges="n_t t_e"/>
    <route id="route_ns" edges="n_t t_s"/>
    <route id="route_nw" edges="n_t t_w"/>
    <route id="route_se" edges="s_t t_e"/>
    <route id="route_sn" edges="s_t t_n"/>
    <route id="route_sw" edges="s_t t_w"/>
    <route id="route_we" edges="w_t t_e"/>
    <route id="route_wn" edges="w_t t_n"/>
    <route id="route_ws" edges="w_t t_s"/>
    <!-- Vehicles, persons and containers (sorted by depart) -->
    <flow id="flow_en" type="mixed" begin="0.00" departLane="best" departPos="base" departSpeed="max" route="route_en" end="2500.00" vehsPerHour="100"/>
    <flow id="flow_es" type="mixed" begin="0.00" departLane="best" departPos="base" departSpeed="max" route="route_es" end="2500.00" vehsPerHour="100"/>
    <flow id="flow_ew" type="mixed" begin="0.00" departLane="best" departPos="base" departSpeed="max" route="route_ew" end="2500.00" vehsPerHour="100"/>
    <flow id="flow_ne" type="mixed" begin="0.00" departLane="best" departPos="base" departSpeed="max" route="route_ne" end="2500.00" vehsPerHour="349.99027804783202100225"/>
    <flow id="flow_ns" type="mixed" begin="0.00" departLane="best" departPos="base" departSpeed="max" route="route_ns" end="2500.00" vehsPerHour="349.99027804783202100225"/>
    <flow id="flow_nw" type="mixed" begin="0.00" departLane="best" departPos="base" departSpeed="max" route="route_nw" end="2500.00" vehsPerHour="349.99027804783202100225"/>
    <flow id="flow_se" type="mixed" begin="0.00" departLane="best" departPos="base" departSpeed="max" route="route_se" end="2500.00" vehsPerHour="349.99027804783202100225"/>
    <flow id="flow_sn" type="mixed" begin="0.00" departLane="best" departPos="base" departSpeed="max" route="route_sn" end="2500.00" vehsPerHour="349.99027804783202100225"/>
    <flow id="flow_sw" type="mixed" begin="0.00" departLane="best" departPos="base" departSpeed="max" route="route_sw" end="2500.00" vehsPerHour="349.99027804783202100225"/>
    <flow id="flow_we" type="mixed" begin="0.00" departLane="best" departPos="base" departSpeed="max" route="route_we" end="2500.00" vehsPerHour="100"/>
    <flow id="flow_wn" type="mixed" begin="0.00" departLane="best" departPos="base" departSpeed="max" route="route_wn" end="2500.00" vehsPerHour="100"/>
    <flow id="flow_ws" type="mixed" begin="0.00" departLane="best" departPos="base" departSpeed="max" route="route_ws" end="2500.00" vehsPerHour="100"/>
    <flow id="flow_en2" type="mixed" begin="2500.00" departLane="best" departPos="base" departSpeed="max" route="route_en" end="5000.00" vehsPerHour="349.99027804783202100225"/>
    <flow id="flow_es2" type="mixed" begin="2500.00" departLane="best" departPos="base" departSpeed="max" route="route_es" end="5000.00" vehsPerHour="349.99027804783202100225"/>
    <flow id="flow_ew2" type="mixed" begin="2500.00" departLane="best" departPos="base" departSpeed="max" route="route_ew" end="5000.00" vehsPerHour="349.99027804783202100225"/>
    <flow id="flow_ne2" type="mixed" begin="2500.00" departLane="best" departPos="base" departSpeed="max" route="route_ne" end="5000.00" vehsPerHour="100"/>
    <flow id="flow_ns2" type="mixed" begin="2500.00" departLane="best" departPos="base" departSpeed="max" route="route_ns" end="5000.00" vehsPerHour="100"/>
    <flow id="flow_nw2" type="mixed" begin="2500.00" departLane="best" departPos="base" departSpeed="max" route="route_nw" end="5000.00" vehsPerHour="100"/>
    <flow id="flow_se2" type="mixed" begin="2500.00" departLane="best" departPos="base" departSpeed="max" route="route_se" end="5000.00" vehsPerHour="100"/>
    <flow id="flow_sn2" type="mixed" begin="2500.00" departLane="best" departPos="base" departSpeed="max" route="route_sn" end="5000.00" vehsPerHour="100"/>
    <flow id="flow_sw2" type="mixed" begin="2500.00" departLane="best" departPos="base" departSpeed="max" route="route_sw" end="5000.00" vehsPerHour="100"/>
    <flow id="flow_we2" type="mixed" begin="2500.00" departLane="best" departPos="base" departSpeed="max" route="route_we" end="5000.00" vehsPerHour="349.99027804783202100225"/>
    <flow id="flow_wn2" type="mixed" begin="2500.00" departLane="best" departPos="base" departSpeed="max" route="route_wn" end="5000.00" vehsPerHour="349.99027804783202100225"/>
    <flow id="flow_ws2" type="mixed" begin="2500.00" departLane="best" departPos="base" departSpeed="max" route="route_ws" end="5000.00" vehsPerHour="349.99027804783202100225"/>
    <flow id="flow_en3" type="mixed" begin="5000.00" departLane="best" departPos="base" departSpeed="max" route="route_en" end="7500.00" vehsPerHour="100"/>
    <flow id="flow_es3" type="mixed" begin="5000.00" departLane="best" departPos="base" departSpeed="max" route="route_es" end="7500.00" vehsPerHour="100"/>
    <flow id="flow_ew3" type="mixed" begin="5000.00" departLane="best" departPos="base" departSpeed="max" route="route_ew" end="7500.00" vehsPerHour="100"/>
    <flow id="flow_ne3" type="mixed" begin="5000.00" departLane="best" departPos="base" departSpeed="max" route="route_ne" end="7500.00" vehsPerHour="349.99027804783202100225"/>
    <flow id="flow_ns3" type="mixed" begin="5000.00" departLane="best" departPos="base" departSpeed="max" route="route_ns" end="7500.00" vehsPerHour="349.99027804783202100225"/>
    <flow id="flow_nw3" type="mixed" begin="5000.00" departLane="best" departPos="base" departSpeed="max" route="route_nw" end="7500.00" vehsPerHour="349.99027804783202100225"/>
    <flow id="flow_se3" type="mixed" begin="5000.00" departLane="best" departPos="base" departSpeed="max" route="route_se" end="7500.00" vehsPerHour="349.99027804783202100225"/>
    <flow id="flow_sn3" type="mixed" begin="5000.00" departLane="best" departPos="base" departSpeed="max" route="route_sn" end="7500.00" vehsPerHour="349.99027804783202100225"/>
    <flow id="flow_sw3" type="mixed" begin="5000.00" departLane="best" departPos="base" departSpeed="max" route="route_sw" end="7500.00" vehsPerHour="349.99027804783202100225"/>
    <flow id="flow_we3" type="mixed" begin="5000.00" departLane="best" departPos="base" departSpeed="max" route="route_we" end="7500.00" vehsPerHour="100"/>
    <flow id="flow_wn3" type="mixed" begin="5000.00" departLane="best" departPos="base" departSpeed="max" route="route_wn" end="7500.00" vehsPerHour="100"/>
    <flow id="flow_ws3" type="mixed" begin="5000.00" departLane="best" departPos="base" departSpeed="max" route="route_ws" end="7500.00" vehsPerHour="100"/>
    <flow id="flow_en4" type="mixed" begin="7500.00" departLane="best" departPos="base" departSpeed="max" route="route_en" end="10000.00" vehsPerHour="349.99027804783202100225"/>
    <flow id="flow_es4" type="mixed" begin="7500.00" departLane="best" departPos="base" departSpeed="max" route="route_es" end="10000.00" vehsPerHour="349.99027804783202100225"/>
    <flow id="flow_ew4" type="mixed" begin="7500.00" departLane="best" departPos="base" departSpeed="max" route="route_ew" end="10000.00" vehsPerHour="349.99027804783202100225"/>
    <flow id="flow_ne4" type="mixed" begin="7500.00" departLane="best" departPos="base" departSpeed="max" route="route_ne" end="10000.00" vehsPerHour="100"/>
    <flow id="flow_ns4" type="mixed" begin="7500.00" departLane="best" departPos="base" departSpeed="max" route="route_ns" end="10000.00" vehsPerHour="100"/>
    <flow id="flow_nw4" type="mixed" begin="7500.00" departLane="best" departPos="base" departSpeed="max" route="route_nw" end="10000.00" vehsPerHour="100"/>
    <flow id="flow_se4" type="mixed" begin="7500.00" departLane="best" departPos="base" departSpeed="max" route="route_se" end="10000.00" vehsPerHour="100"/>
    <flow id="flow_sn4" type="mixed" begin="7500.00" departLane="best" departPos="base" departSpeed="max" route="route_sn" end="10000.00" vehsPerHour="100"/>
    <flow id="flow_sw4" type="mixed" begin="7500.00" departLane="best" departPos="base" departSpeed="max" route="route_sw" end="10000.00" vehsPerHour="100"/>
    <flow id="flow_we4" type="mixed" begin="7500.00" departLane="best" departPos="base" departSpeed="max" route="route_we" end="10000.00" vehsPerHour="349.99027804783202100225"/>
    <flow id="flow_wn4" type="mixed" begin="7500.00" departLane="best" departPos="base" departSpeed="max" route="route_wn" end="10000.00" vehsPerHour="349.99027804783202100225"/>
    <flow id="flow_ws4" type="mixed" begin="7500.00" departLane="best" departPos="base" departSpeed="max" route="route_ws" end="10000.00" vehsPerHour="349.99027804783202100225"/>
</routes>
