<routes>
<!-- VTypes -->
    <vType id="ambulance" vClass="emergency" color="red" accel="1.0" decel="4.0" emergencyDecel="12.0"/>
    <vType id="bike" vClass="motorcycle" color="grey" accel="1.0" decel="4.0" emergencyDecel="12.0"/>
    <vType id="bus" vClass="bus" color="green" accel="1.0" decel="4.0" emergencyDecel="12.0"/>
    <vType id="car" color="cyan" accel="1.0" decel="4.0" emergencyDecel="12.0"/>
    <vType id="moped" vClass="moped" accel="1.0" decel="4.0" emergencyDecel="12.0"/>
    <vType id="police" vClass="authority" color="blue" accel="1.0" decel="4.0" emergencyDecel="12.0"/>
    <vType id="truck" vClass="truck" color="orange" accel="1.0" decel="4.0" emergencyDecel="12.0"/>
    <vTypeDistribution id="mixed" vTypes="ambulance bike bus car moped police truck" probabilities="0.01 0.50 0.15 0.50 0.50 0.10 0.15"/>

    <route id="route_ns" edges="n_t t_s"/>
    <route id="route_nw" edges="n_t t_w"/>
    <route id="route_ne" edges="n_t t_e"/>
    <route id="route_we" edges="w_t t_e"/>
    <route id="route_wn" edges="w_t t_n"/>
    <route id="route_ws" edges="w_t t_s"/>
    <route id="route_ew" edges="e_t t_w"/>
    <route id="route_en" edges="e_t t_n"/>
    <route id="route_es" edges="e_t t_s"/>
    <route id="route_sn" edges="s_t t_n"/>
    <route id="route_se" edges="s_t t_e"/>
    <route id="route_sw" edges="s_t t_w"/>

    <flow id="flow_ns" type="mixed" route="route_ns" begin="0" end="2500" vehsPerHour="350" departSpeed="max" departPos="base" departLane="best"/>
    <flow id="flow_nw" type="mixed" route="route_nw" begin="0" end="2500" vehsPerHour="350" departSpeed="max" departPos="base" departLane="best"/>
    <flow id="flow_ne" type="mixed" route="route_ne" begin="0" end="2500" vehsPerHour="350" departSpeed="max" departPos="base" departLane="best"/>
    <flow id="flow_sw" type="mixed" route="route_sw" begin="0" end="2500" vehsPerHour="350" departSpeed="max" departPos="base" departLane="best"/>
    <flow id="flow_sn" type="mixed" route="route_sn" begin="0" end="2500" vehsPerHour="350" departSpeed="max" departPos="base" departLane="best"/>
    <flow id="flow_se" type="mixed" route="route_se" begin="0" end="2500" vehsPerHour="350" departSpeed="max" departPos="base" departLane="best"/>

    <flow id="flow_en" type="mixed" route="route_en" begin="0" end="2500" vehsPerHour="100" departSpeed="max" departPos="base" departLane="best"/>
    <flow id="flow_ew" type="mixed" route="route_ew" begin="0" end="2500" vehsPerHour="100" departSpeed="max" departPos="base" departLane="best"/>
    <flow id="flow_es" type="mixed" route="route_es" begin="0" end="2500" vehsPerHour="100" departSpeed="max" departPos="base" departLane="best"/>
    <flow id="flow_wn" type="mixed" route="route_wn" begin="0" end="2500" vehsPerHour="100" departSpeed="max" departPos="base" departLane="best"/>
    <flow id="flow_we" type="mixed" route="route_we" begin="0" end="2500" vehsPerHour="100" departSpeed="max" departPos="base" departLane="best"/>
    <flow id="flow_ws" type="mixed" route="route_ws" begin="0" end="2500" vehsPerHour="100" departSpeed="max" departPos="base" departLane="best"/>


    <flow id="flow_ns2" type="mixed" route="route_ns" begin="2500" end="5000" vehsPerHour="100" departSpeed="max" departPos="base" departLane="best"/>
    <flow id="flow_nw2" type="mixed" route="route_nw" begin="2500" end="5000" vehsPerHour="100" departSpeed="max" departPos="base" departLane="best"/>
    <flow id="flow_ne2" type="mixed" route="route_ne" begin="2500" end="5000" vehsPerHour="100" departSpeed="max" departPos="base" departLane="best"/>
    <flow id="flow_sw2" type="mixed" route="route_sw" begin="2500" end="5000" vehsPerHour="100" departSpeed="max" departPos="base" departLane="best"/>
    <flow id="flow_sn2" type="mixed" route="route_sn" begin="2500" end="5000" vehsPerHour="100" departSpeed="max" departPos="base" departLane="best"/>
    <flow id="flow_se2" type="mixed" route="route_se" begin="2500" end="5000" vehsPerHour="100" departSpeed="max" departPos="base" departLane="best"/>

    <flow id="flow_en2" type="mixed" route="route_en" begin="2500" end="5000" vehsPerHour="350" departSpeed="max" departPos="base" departLane="best"/>
    <flow id="flow_ew2" type="mixed" route="route_ew" begin="2500" end="5000" vehsPerHour="350" departSpeed="max" departPos="base" departLane="best"/>
    <flow id="flow_es2" type="mixed" route="route_es" begin="2500" end="5000" vehsPerHour="350" departSpeed="max" departPos="base" departLane="best"/>
    <flow id="flow_wn2" type="mixed" route="route_wn" begin="2500" end="5000" vehsPerHour="350" departSpeed="max" departPos="base" departLane="best"/>
    <flow id="flow_we2" type="mixed" route="route_we" begin="2500" end="5000" vehsPerHour="350" departSpeed="max" departPos="base" departLane="best"/>
    <flow id="flow_ws2" type="mixed" route="route_ws" begin="2500" end="5000" vehsPerHour="350" departSpeed="max" departPos="base" departLane="best"/>
    

    <flow id="flow_ns3" type="mixed" route="route_ns" begin="5000" end="7500" vehsPerHour="350" departSpeed="max" departPos="base" departLane="best"/>
    <flow id="flow_nw3" type="mixed" route="route_nw" begin="5000" end="7500" vehsPerHour="350" departSpeed="max" departPos="base" departLane="best"/>
    <flow id="flow_ne3" type="mixed" route="route_ne" begin="5000" end="7500" vehsPerHour="350" departSpeed="max" departPos="base" departLane="best"/>
    <flow id="flow_sw3" type="mixed" route="route_sw" begin="5000" end="7500" vehsPerHour="350" departSpeed="max" departPos="base" departLane="best"/>
    <flow id="flow_sn3" type="mixed" route="route_sn" begin="5000" end="7500" vehsPerHour="350" departSpeed="max" departPos="base" departLane="best"/>
    <flow id="flow_se3" type="mixed" route="route_se" begin="5000" end="7500" vehsPerHour="350" departSpeed="max" departPos="base" departLane="best"/>

    <flow id="flow_en3" type="mixed" route="route_en" begin="5000" end="7500" vehsPerHour="100" departSpeed="max" departPos="base" departLane="best"/>
    <flow id="flow_ew3" type="mixed" route="route_ew" begin="5000" end="7500" vehsPerHour="100" departSpeed="max" departPos="base" departLane="best"/>
    <flow id="flow_es3" type="mixed" route="route_es" begin="5000" end="7500" vehsPerHour="100" departSpeed="max" departPos="base" departLane="best"/>
    <flow id="flow_wn3" type="mixed" route="route_wn" begin="5000" end="7500" vehsPerHour="100" departSpeed="max" departPos="base" departLane="best"/>
    <flow id="flow_we3" type="mixed" route="route_we" begin="5000" end="7500" vehsPerHour="100" departSpeed="max" departPos="base" departLane="best"/>
    <flow id="flow_ws3" type="mixed" route="route_ws" begin="5000" end="7500" vehsPerHour="100" departSpeed="max" departPos="base" departLane="best"/>


    <flow id="flow_ns4" type="mixed" route="route_ns" begin="7500" end="10000" vehsPerHour="100" departSpeed="max" departPos="base" departLane="best"/>
    <flow id="flow_nw4" type="mixed" route="route_nw" begin="7500" end="10000" vehsPerHour="100" departSpeed="max" departPos="base" departLane="best"/>
    <flow id="flow_ne4" type="mixed" route="route_ne" begin="7500" end="10000" vehsPerHour="100" departSpeed="max" departPos="base" departLane="best"/>
    <flow id="flow_sw4" type="mixed" route="route_sw" begin="7500" end="10000" vehsPerHour="100" departSpeed="max" departPos="base" departLane="best"/>
    <flow id="flow_sn4" type="mixed" route="route_sn" begin="7500" end="10000" vehsPerHour="100" departSpeed="max" departPos="base" departLane="best"/>
    <flow id="flow_se4" type="mixed" route="route_se" begin="7500" end="10000" vehsPerHour="100" departSpeed="max" departPos="base" departLane="best"/>

    <flow id="flow_en4" type="mixed" route="route_en" begin="7500" end="10000" vehsPerHour="350" departSpeed="max" departPos="base" departLane="best"/>
    <flow id="flow_ew4" type="mixed" route="route_ew" begin="7500" end="10000" vehsPerHour="350" departSpeed="max" departPos="base" departLane="best"/>
    <flow id="flow_es4" type="mixed" route="route_es" begin="7500" end="10000" vehsPerHour="350" departSpeed="max" departPos="base" departLane="best"/>
    <flow id="flow_wn4" type="mixed" route="route_wn" begin="7500" end="10000" vehsPerHour="350" departSpeed="max" departPos="base" departLane="best"/>
    <flow id="flow_we4" type="mixed" route="route_we" begin="7500" end="10000" vehsPerHour="350" departSpeed="max" departPos="base" departLane="best"/>
    <flow id="flow_ws4" type="mixed" route="route_ws" begin="7500" end="10000" vehsPerHour="350" departSpeed="max" departPos="base" departLane="best"/>

</routes>
